REMARK  6 active torsions:
REMARK  status: ('A' for Active; 'I' for Inactive)
REMARK    1  A    between atoms: O_3  and  C_12 
REMARK    2  A    between atoms: N_4  and  C_13 
REMARK    3  A    between atoms: N_5  and  C_14 
REMARK    4  A    between atoms: C_12  and  C_13 
REMARK    5  A    between atoms: C_12  and  C_14 
REMARK    6  A    between atoms: C_12  and  C_15 
ROOT
HETATM    1  C   UNL     1      -0.007  -1.093  -0.202  1.00  0.00     0.144 C 
ENDROOT
BRANCH   1   2
HETATM    2  O   UNL     1      -0.021  -1.801   1.049  1.00  0.00    -0.381 OA
HETATM    3  H   UNL     1      -0.377  -2.693   0.890  1.00  0.00     0.211 HD
ENDBRANCH   1   2
BRANCH   1   4
HETATM    4  C   UNL     1       1.256  -1.586  -0.962  1.00  0.00     0.334 C 
BRANCH   4   5
HETATM    5  N   UNL     1       2.526  -1.285  -0.283  1.00  0.00     0.106 N 
HETATM    6  N   UNL     1       3.161  -0.138  -0.577  1.00  0.00    -0.198 N 
HETATM    7  C   UNL     1       4.241  -0.277   0.263  1.00  0.00     0.210 A 
HETATM    8  HN  UNL     1       2.916   0.609  -1.226  1.00  0.00     0.196 HD
HETATM    9  N   UNL     1       3.763  -1.239   0.536  1.00  0.00    -0.051 NA
HETATM   10  C   UNL     1       3.100  -2.123   0.637  1.00  0.00     0.418 A 
ENDBRANCH   4   5
ENDBRANCH   1   4
BRANCH   1  11
HETATM   11  C   UNL     1      -1.274  -1.547  -0.980  1.00  0.00     0.334 C 
BRANCH  11  12
HETATM   12  N   UNL     1      -2.546  -1.214  -0.319  1.00  0.00     0.106 N 
HETATM   13  N   UNL     1      -3.094  -2.118   0.510  1.00  0.00    -0.198 N 
HETATM   14  C   UNL     1      -4.216  -1.412   0.879  1.00  0.00     0.210 A 
HETATM   15  HN  UNL     1      -2.775  -3.047   0.783  1.00  0.00     0.196 HD
HETATM   16  N   UNL     1      -3.807  -0.636   0.201  1.00  0.00    -0.051 NA
HETATM   17  C   UNL     1      -3.216  -0.036  -0.521  1.00  0.00     0.418 A 
ENDBRANCH  11  12
ENDBRANCH   1  11
BRANCH   1  18
HETATM   18  C   UNL     1       0.012   0.437   0.014  1.00  0.00     0.018 A 
HETATM   19  C   UNL     1       0.059   1.328  -1.073  1.00  0.00     0.128 A 
HETATM   20  F   UNL     1       0.063   0.889  -2.345  1.00  0.00    -0.205 F 
HETATM   21  C   UNL     1       0.084   2.707  -0.872  1.00  0.00     0.085 A 
HETATM   22  C   UNL     1       0.052   3.222   0.418  1.00  0.00     0.119 A 
HETATM   23  F   UNL     1       0.068   4.552   0.612  1.00  0.00    -0.206 F 
HETATM   24  C   UNL     1      -0.006   2.361   1.509  1.00  0.00     0.043 A 
HETATM   25  C   UNL     1      -0.024   0.983   1.308  1.00  0.00     0.016 A 
ENDBRANCH   1  18
TORSDOF 6
